@<TRIPOS>MOLECULE
default_name
  144   147     1     0     1 
SMALL
USER_CHARGES
@<TRIPOS>ATOM
  1 C2     -7.234000   25.472000   41.742000 c3    1 MOL     0.0087 ****
  2 C1     -6.816000   26.014000   40.365000 c     1 MOL     0.7152 ****
  3 O1     -7.715000   26.739000   39.504000 os    1 MOL    -0.5182 ****
  4 O2     -5.659000   25.863000   39.953000 o     1 MOL    -0.5681 ****
  5 H      -6.791000   26.191000   42.399000 h1    1 MOL     0.1041 ****
  6 C3     -6.748000   24.038000   41.963000 c3    1 MOL    -0.0796 ****
  7 H1     -6.817000   23.821000   43.009000 hc    1 MOL     0.0447 ****
  8 H2     -5.747000   24.000000   41.587000 hc    1 MOL     0.0447 ****
  9 C4     -7.531000   22.968000   41.204000 c3    1 MOL    -0.0191 ****
 10 H3     -7.207000   22.004000   41.535000 hc    1 MOL     0.0285 ****
 11 H4     -7.345000   23.103000   40.159000 hc    1 MOL     0.0285 ****
 12 C5     -9.027000   23.085000   41.430000 c3    1 MOL    -0.0127 ****
 13 H5     -9.250000   22.844000   42.448000 hc    1 MOL     0.0253 ****
 14 H6     -9.532000   22.408000   40.773000 hc    1 MOL     0.0253 ****
 15 C6     -9.492000   24.485000   41.139000 c3    1 MOL    -0.1070 ****
 16 H7    -10.530000   24.585000   41.379000 h1    1 MOL     0.1015 ****
 17 H8     -9.372000   24.721000   40.102000 h1    1 MOL     0.1015 ****
 18 N7     -8.685000   25.389000   41.985000 n     1 MOL    -0.1863 ****
 19 C8     -9.287000   26.223000   42.852000 c     1 MOL     0.4122 ****
 20 O3     -8.653000   27.066000   43.484000 o     1 MOL    -0.5476 ****
 21 C9    -10.645000   26.309000   43.120000 c     1 MOL     0.6275 ****
 22 O4    -11.026000   25.607000   44.055000 o     1 MOL    -0.5289 ****
 23 C10   -11.647000   27.189000   42.361000 c3    1 MOL     0.3270 ****
 24 O5    -11.749000   26.675000   41.029000 os    1 MOL    -0.6641 ****
 25 O6    -12.815000   27.195000   43.206000 oh    1 MOL    -0.6369 ****
 26 HO6   -12.593000   27.124000   44.143000 ho    1 MOL     0.4360 ****
 27 C11   -11.102000   28.623000   42.177000 c3    1 MOL     0.1128 ****
 28 C43   -10.856000   29.287000   43.527000 c3    1 MOL    -0.5000 ****
 29 H46   -11.778000   29.350000   44.067000 hc    1 MOL     0.1291 ****
 30 H47   -10.464000   30.271000   43.374000 hc    1 MOL     0.1291 ****
 31 H48   -10.154000   28.706000   44.087000 hc    1 MOL     0.1291 ****
 32 H9    -10.170000   28.569000   41.654000 hc    1 MOL     0.0692 ****
 33 C12   -12.102000   29.453000   41.362000 c3    1 MOL    -0.1131 ****
 34 H10   -11.610000   30.350000   41.047000 hc    1 MOL     0.0695 ****
 35 H11   -12.938000   29.630000   42.006000 hc    1 MOL     0.0695 ****
 36 C13   -12.661000   28.755000   40.117000 c3    1 MOL    -0.2839 ****
 37 H12   -12.034000   29.008000   39.288000 hc    1 MOL     0.0587 ****
 38 H13   -13.669000   29.098000   40.016000 hc    1 MOL     0.0587 ****
 39 C14   -12.744000   27.225000   40.197000 c3    1 MOL     0.8107 ****
 40 H14   -13.733000   27.044000   40.562000 h1    1 MOL    -0.0410 ****
 41 C15   -12.476000   26.558000   38.844000 c3    1 MOL    -0.5494 ****
 42 H15   -12.361000   25.511000   39.035000 hc    1 MOL     0.1528 ****
 43 H16   -11.626000   27.093000   38.475000 hc    1 MOL     0.1528 ****
 44 C16   -13.491000   26.688000   37.700000 c3    1 MOL     0.0344 ****
 45 O7    -14.764000   26.288000   38.070000 os    1 MOL    -0.3399 ****
 46 C50   -15.819000   26.946000   37.457000 c3    1 MOL     0.0502 ****
 47 H67   -16.745000   26.552000   37.821000 h1    1 MOL     0.0459 ****
 48 H68   -15.762000   26.802000   36.398000 h1    1 MOL     0.0459 ****
 49 H69   -15.764000   27.991000   37.678000 h1    1 MOL     0.0459 ****
 50 H17   -13.545000   27.719000   37.418000 h1    1 MOL     0.0837 ****
 51 C17   -13.020000   25.794000   36.553000 c2    1 MOL     0.3197 ****
 52 C44   -12.882000   24.304000   36.817000 c3    1 MOL    -0.5178 ****
 53 H49   -13.198000   24.088000   37.816000 hc    1 MOL     0.1534 ****
 54 H50   -11.859000   24.013000   36.696000 hc    1 MOL     0.1534 ****
 55 H51   -13.492000   23.761000   36.125000 hc    1 MOL     0.1534 ****
 56 C18   -12.702000   26.344000   35.400000 ce    1 MOL    -0.4181 ****
 57 H18   -12.830000   27.367000   35.344000 ha    1 MOL     0.1546 ****
 58 C19   -12.183000   25.694000   34.165000 ce    1 MOL    -0.0491 ****
 59 H19   -11.767000   24.750000   34.205000 ha    1 MOL     0.1348 ****
 60 C20   -12.264000   26.351000   33.003000 cf    1 MOL    -0.1334 ****
 61 H20   -12.734000   27.269000   32.988000 ha    1 MOL     0.1513 ****
 62 C21   -11.719000   25.829000   31.760000 cf    1 MOL    -0.2218 ****
 63 H21   -11.946000   24.848000   31.535000 ha    1 MOL     0.1488 ****
 64 C22   -10.967000   26.472000   30.890000 c2    1 MOL    -0.1915 ****
 65 H22   -10.692000   27.456000   31.034000 ha    1 MOL     0.1335 ****
 66 C23   -10.527000   25.696000   29.671000 c3    1 MOL     0.2965 ****
 67 C45   -11.166000   26.303000   28.459000 c3    1 MOL    -0.4376 ****
 68 H52   -10.867000   27.327000   28.373000 hc    1 MOL     0.1099 ****
 69 H53   -12.231000   26.249000   28.552000 hc    1 MOL     0.1099 ****
 70 H54   -10.856000   25.767000   27.586000 hc    1 MOL     0.1099 ****
 71 H23   -10.823000   24.672000   29.760000 hc    1 MOL     0.0265 ****
 72 C24    -9.009000   25.760000   29.546000 c3    1 MOL    -0.3365 ****
 73 H24    -8.743000   26.768000   29.304000 hc    1 MOL     0.0921 ****
 74 H25    -8.752000   25.045000   28.793000 hc    1 MOL     0.0921 ****
 75 C25    -8.217000   25.354000   30.783000 c3    1 MOL     0.0150 ****
 76 C46    -8.066000   23.836000   30.825000 c3    1 MOL    -0.1783 ****
 77 H55    -7.546000   23.505000   29.950000 hc    1 MOL     0.0577 ****
 78 H56    -9.034000   23.382000   30.857000 hc    1 MOL     0.0577 ****
 79 H57    -7.512000   23.557000   31.697000 hc    1 MOL     0.0577 ****
 80 H26    -8.738000   25.669000   31.663000 hc    1 MOL     0.0529 ****
 81 C26    -6.853000   26.023000   30.751000 c     1 MOL     0.5448 ****
 82 O8     -5.913000   25.475000   30.185000 o     1 MOL    -0.4942 ****
 83 C27    -6.684000   27.414000   31.356000 c3    1 MOL     0.2029 ****
 84 O9     -5.514000   27.884000   30.789000 os    1 MOL    -0.3829 ****
 85 C51    -5.711000   28.919000   29.903000 c3    1 MOL    -0.1010 ****
 86 H70    -4.768000   29.232000   29.504000 h1    1 MOL     0.0860 ****
 87 H71    -6.174000   29.740000   30.410000 h1    1 MOL     0.0860 ****
 88 H72    -6.344000   28.590000   29.106000 h1    1 MOL     0.0860 ****
 89 H27    -7.554000   28.013000   31.185000 h1    1 MOL     0.0499 ****
 90 C28    -6.426000   27.335000   32.858000 c3    1 MOL    -0.0348 ****
 91 O10    -5.394000   26.369000   33.097000 oh    1 MOL    -0.5876 ****
 92 HO1    -4.969000   26.537000   33.948000 ho    1 MOL     0.4161 ****
 93 H28    -6.139000   28.319000   33.165000 h1    1 MOL     0.1254 ****
 94 C29    -7.657000   26.973000   33.703000 c2    1 MOL     0.0294 ****
 95 C47    -8.663000   28.083000   33.806000 c3    1 MOL    -0.2737 ****
 96 H58    -8.315000   28.932000   33.255000 hc    1 MOL     0.0745 ****
 97 H59    -8.792000   28.353000   34.833000 hc    1 MOL     0.0745 ****
 98 H60    -9.599000   27.755000   33.404000 hc    1 MOL     0.0745 ****
 99 C30    -7.814000   25.804000   34.281000 c2    1 MOL    -0.2618 ****
100 H29    -7.076000   25.108000   34.092000 ha    1 MOL     0.1605 ****
101 C31    -8.914000   25.353000   35.171000 c3    1 MOL     0.1551 ****
102 C48    -9.109000   23.870000   34.864000 c3    1 MOL    -0.3326 ****
103 H61    -8.196000   23.344000   35.049000 hc    1 MOL     0.0840 ****
104 H62    -9.387000   23.752000   33.837000 hc    1 MOL     0.0840 ****
105 H63    -9.881000   23.475000   35.490000 hc    1 MOL     0.0840 ****
106 H30    -9.807000   25.917000   34.998000 hc    1 MOL     0.0464 ****
107 C32    -8.560000   25.557000   36.644000 c     1 MOL     0.4636 ****
108 O11    -8.235000   24.591000   37.334000 o     1 MOL    -0.4790 ****
109 C33    -8.639000   26.961000   37.262000 c3    1 MOL    -0.2404 ****
110 H31    -9.549000   27.037000   37.820000 hc    1 MOL     0.0677 ****
111 H32    -8.603000   27.667000   36.459000 hc    1 MOL     0.0677 ****
112 C34    -7.455000   27.273000   38.205000 c3    1 MOL     0.3119 ****
113 H33    -6.588000   26.877000   37.719000 h1    1 MOL     0.0704 ****
114 C35    -7.353000   28.808000   38.512000 c3    1 MOL     0.3249 ****
115 C49    -8.736000   29.425000   38.657000 c3    1 MOL    -0.3099 ****
116 H64    -9.272000   29.320000   37.737000 hc    1 MOL     0.0676 ****
117 H65    -8.640000   30.463000   38.897000 hc    1 MOL     0.0676 ****
118 H66    -9.269000   28.926000   39.439000 hc    1 MOL     0.0676 ****
119 H34    -6.811000   28.909000   39.429000 hc    1 MOL     0.0023 ****
120 C36    -6.618000   29.542000   37.393000 c3    1 MOL    -0.5091 ****
121 H35    -6.494000   30.554000   37.718000 hc    1 MOL     0.1255 ****
122 H36    -7.240000   29.369000   36.539000 hc    1 MOL     0.1255 ****
123 C37    -5.242000   29.057000   36.926000 c3    1 MOL     0.1958 ****
124 H37    -5.393000   28.009000   36.769000 hc    1 MOL    -0.0326 ****
125 C38    -4.839000   29.836000   35.667000 c3    1 MOL    -0.3130 ****
126 H38    -4.823000   30.874000   35.927000 hc    1 MOL     0.1020 ****
127 H39    -5.564000   29.551000   34.934000 hc    1 MOL     0.1020 ****
128 C39    -3.488000   29.508000   35.015000 c3    1 MOL     0.1607 ****
129 O12    -3.117000   30.527000   34.126000 os    1 MOL    -0.4771 ****
130 C52    -4.002000   31.014000   33.140000 c3    1 MOL     0.1487 ****
131 H73    -3.519000   31.784000   32.576000 h1    1 MOL     0.0381 ****
132 H74    -4.876000   31.413000   33.611000 h1    1 MOL     0.0381 ****
133 H75    -4.282000   30.215000   32.486000 h1    1 MOL     0.0381 ****
134 H40    -3.607000   28.560000   34.533000 h1    1 MOL     0.0673 ****
135 C40    -2.354000   29.491000   36.072000 c3    1 MOL     0.2839 ****
136 O13    -1.167000   28.920000   35.507000 oh    1 MOL    -0.7208 ****
137 HO3    -0.427000   29.516000   35.649000 ho    1 MOL     0.4441 ****
138 H41    -2.164000   30.501000   36.370000 h1    1 MOL     0.0149 ****
139 C41    -2.766000   28.682000   37.309000 c3    1 MOL     0.0153 ****
140 H42    -2.000000   28.782000   38.049000 hc    1 MOL     0.0300 ****
141 H43    -2.895000   27.668000   36.993000 hc    1 MOL     0.0300 ****
142 C42    -4.078000   29.130000   37.914000 c3    1 MOL    -0.1656 ****
143 H44    -4.300000   28.502000   38.751000 hc    1 MOL     0.0504 ****
144 H45    -3.966000   30.154000   38.204000 hc    1 MOL     0.0504 ****
@<TRIPOS>BOND
    1   142   143 1
    2   142   144 1
    3   139   140 1
    4   139   141 1
    5   139   142 1
    6   136   137 1
    7   135   136 1
    8   135   138 1
    9   135   139 1
   10   130   131 1
   11   130   132 1
   12   130   133 1
   13   129   130 1
   14   128   129 1
   15   128   134 1
   16   128   135 1
   17   125   126 1
   18   125   127 1
   19   125   128 1
   20   123   124 1
   21   123   125 1
   22   123   142 1
   23   120   121 1
   24   120   122 1
   25   120   123 1
   26   115   116 1
   27   115   117 1
   28   115   118 1
   29   114   115 1
   30   114   119 1
   31   114   120 1
   32   112   113 1
   33   112   114 1
   34   109   110 1
   35   109   111 1
   36   109   112 1
   37   107   108 1
   38   107   109 1
   39   102   103 1
   40   102   104 1
   41   102   105 1
   42   101   102 1
   43   101   106 1
   44   101   107 1
   45    99   100 1
   46    99   101 1
   47    95    96 1
   48    95    97 1
   49    95    98 1
   50    94    95 1
   51    94    99 1
   52    91    92 1
   53    90    91 1
   54    90    93 1
   55    90    94 1
   56    85    86 1
   57    85    87 1
   58    85    88 1
   59    84    85 1
   60    83    84 1
   61    83    89 1
   62    83    90 1
   63    81    82 1
   64    81    83 1
   65    76    77 1
   66    76    78 1
   67    76    79 1
   68    75    76 1
   69    75    80 1
   70    75    81 1
   71    72    73 1
   72    72    74 1
   73    72    75 1
   74    67    68 1
   75    67    69 1
   76    67    70 1
   77    66    67 1
   78    66    71 1
   79    66    72 1
   80    64    65 1
   81    64    66 1
   82    62    63 1
   83    62    64 1
   84    60    61 1
   85    60    62 1
   86    58    59 1
   87    58    60 1
   88    56    57 1
   89    56    58 1
   90    52    53 1
   91    52    54 1
   92    52    55 1
   93    51    52 1
   94    51    56 1
   95    46    47 1
   96    46    48 1
   97    46    49 1
   98    45    46 1
   99    44    45 1
  100    44    50 1
  101    44    51 1
  102    41    42 1
  103    41    43 1
  104    41    44 1
  105    39    40 1
  106    39    41 1
  107    36    37 1
  108    36    38 1
  109    36    39 1
  110    33    34 1
  111    33    35 1
  112    33    36 1
  113    28    29 1
  114    28    30 1
  115    28    31 1
  116    27    28 1
  117    27    32 1
  118    27    33 1
  119    25    26 1
  120    24    39 1
  121    23    24 1
  122    23    25 1
  123    23    27 1
  124    21    22 1
  125    21    23 1
  126    19    20 1
  127    19    21 1
  128    18    19 1
  129    15    16 1
  130    15    17 1
  131    15    18 1
  132    12    13 1
  133    12    14 1
  134    12    15 1
  135     9    10 1
  136     9    11 1
  137     9    12 1
  138     6     7 1
  139     6     8 1
  140     6     9 1
  141     3   112 1
  142     2     3 1
  143     2     4 1
  144     1     2 1
  145     1     5 1
  146     1     6 1
  147     1    18 1
@<TRIPOS>SUBSTRUCTURE
      1  MOL              1 ****               0 ****  **** 